sf16x1_optsp_c1m2.out
     RDKit          3D

 33 37  0  0  1  0  0  0  0  0999 V2000
   -0.5495   -8.9813   -0.4127 N   0  0  2  0  0  0  0  0  0  0  0  0
    0.1747   -9.5822    0.8082 C   0  0  0  0  0  0  0  0  0  0  0  0
    1.4427  -10.1503    0.5160 C   0  0  0  0  0  0  0  0  0  0  0  0
    2.0886   -9.9341   -0.7049 C   0  0  0  0  0  0  0  0  0  0  0  0
    1.4727   -9.1506   -1.7306 C   0  0  0  0  0  0  0  0  0  0  0  0
    0.2249   -8.6728   -1.6003 C   0  0  0  0  0  0  0  0  0  0  0  0
    3.3628  -10.5661   -0.6151 C   0  0  0  0  0  0  0  0  0  0  0  0
    3.4294  -11.1461    0.6775 C   0  0  0  0  0  0  0  0  0  0  0  0
    2.2466  -10.8810    1.3455 N   0  0  0  0  0  0  0  0  0  0  0  0
    4.5543  -11.8529    1.1097 C   0  0  0  0  0  0  0  0  0  0  0  0
    5.6083  -11.9689    0.2207 C   0  0  0  0  0  0  0  0  0  0  0  0
    5.5585  -11.4008   -1.0682 C   0  0  0  0  0  0  0  0  0  0  0  0
    4.4480  -10.7011   -1.4953 C   0  0  0  0  0  0  0  0  0  0  0  0
   -0.6684   -9.4211    1.8525 C   0  0  0  0  0  0  0  0  0  0  0  0
   -1.8665   -8.7293    1.2908 C   0  0  0  0  0  3  0  0  0  0  0  0
   -1.2215   -7.7891    0.2930 C   0  0  0  0  0  0  0  0  0  0  0  0
   -2.6062   -9.6557    0.3609 C   0  0  0  0  0  0  0  0  0  0  0  0
   -1.7871   -9.8223   -0.6745 C   0  0  0  0  0  0  0  0  0  0  0  0
    2.0173   -8.9245   -2.6423 H   0  0  0  0  0  0  0  0  0  0  0  0
   -0.3144   -8.0869   -2.3336 H   0  0  0  0  0  0  0  0  0  0  0  0
    4.6176  -12.2895    2.1010 H   0  0  0  0  0  0  0  0  0  0  0  0
    6.4992  -12.5090    0.5264 H   0  0  0  0  0  0  0  0  0  0  0  0
    6.4104  -11.5165   -1.7308 H   0  0  0  0  0  0  0  0  0  0  0  0
    4.4165  -10.2653   -2.4898 H   0  0  0  0  0  0  0  0  0  0  0  0
   -0.5569   -9.8104    2.8547 H   0  0  0  0  0  0  0  0  0  0  0  0
   -1.8978   -7.2906   -0.4036 H   0  0  0  0  0  0  0  0  0  0  0  0
   -0.4519   -7.1250    0.6870 H   0  0  0  0  0  0  0  0  0  0  0  0
   -3.5519  -10.1532    0.5359 H   0  0  0  0  0  0  0  0  0  0  0  0
   -1.7881  -10.4379   -1.5636 H   0  0  0  0  0  0  0  0  0  0  0  0
    1.9205  -11.3083    2.6880 C   0  0  0  0  0  0  0  0  0  0  0  0
    2.0191  -10.4847    3.4035 H   0  0  0  0  0  0  0  0  0  0  0  0
    2.5980  -12.1101    2.9818 H   0  0  0  0  0  0  0  0  0  0  0  0
    0.9022  -11.7045    2.7171 H   0  0  0  0  0  0  0  0  0  0  0  0
  1 16  1  0
  1  2  1  0
  2 14  2  0
  3  2  1  0
  3  9  1  0
  4  7  1  0
  4  3  2  0
  5  6  2  0
  5  4  1  0
  1  6  1  6
  7  8  2  0
  8 10  1  0
  8  9  1  0
  9 30  1  0
 10 21  1  0
 11 22  1  0
 11 10  2  0
 12 11  1  0
 13 12  2  0
 13  7  1  0
 14 25  1  0
 15 16  1  0
 15 14  1  0
 16 27  1  0
 17 28  1  0
 17 15  1  0
 18  1  1  0
 18 17  2  0
 19  5  1  0
 20  6  1  0
 23 12  1  0
 24 13  1  0
 26 16  1  0
 29 18  1  0
 30 33  1  0
 30 32  1  0
 30 31  1  0
M  CHG  1   1   1
M  RAD  1  15   2
M  END
