sf70x0_optsp_c1m2.out
     RDKit          3D

 48 49  0  0  0  0  0  0  0  0999 V2000
    0.7378   -0.3197    0.1542 C   0  0  0  0  0  0  0  0  0  0  0  0
    2.2474   -0.2858    0.2746 C   0  0  0  0  0  0  0  0  0  0  0  0
    2.8150   -0.6539    1.6318 N   0  0  0  0  0  0  0  0  0  0  0  0
    2.3032    0.2845    2.7074 C   0  0  0  0  0  0  0  0  0  0  0  0
    2.6310    1.7514    2.5199 C   0  0  0  0  0  0  0  0  0  0  0  0
    2.3847   -2.0496    2.0414 C   0  0  0  0  0  0  0  0  0  0  0  0
    2.7784   -3.1690    1.1002 C   0  0  0  0  0  0  0  0  0  0  0  0
    4.3240   -0.5656    1.5062 C   0  0  0  0  0  0  0  0  0  0  0  0
    5.1236   -0.8737    2.7566 C   0  0  0  0  0  0  0  0  0  0  0  0
    6.6361   -0.7993    2.4648 C   0  0  0  0  0  0  0  0  0  0  0  0
    7.4186   -1.1665    3.6140 N   0  0  0  0  0  0  0  0  0  0  0  0
    7.7227   -0.2096    4.5660 C   0  0  0  0  0  0  0  0  0  0  0  0
    8.1279   -0.5394    5.8093 C   0  0  0  0  0  0  0  0  0  0  0  0
    8.2334   -1.9227    6.2180 C   0  0  0  0  0  0  0  0  0  0  0  0
    8.6434   -2.3115    7.4907 C   0  0  0  0  0  0  0  0  0  0  0  0
    8.7484   -3.6596    7.8286 C   0  0  0  0  0  0  0  0  0  0  0  0
    8.4427   -4.6363    6.8739 C   0  0  0  0  0  0  0  0  0  0  0  0
    8.0312   -4.2808    5.6015 C   0  0  0  0  0  0  0  0  0  0  0  0
    7.9100   -2.9176    5.2389 C   0  0  0  0  0  0  0  0  0  0  0  0
    7.4836   -2.5165    3.9636 C   0  0  0  0  0  0  0  0  0  0  0  0
    0.4860   -0.0364   -0.8725 H   0  0  0  0  0  0  0  0  0  0  0  0
    0.2378    0.3958    0.8126 H   0  0  0  0  0  0  0  0  0  0  0  0
    0.3161   -1.3144    0.3220 H   0  0  0  0  0  0  0  0  0  0  0  0
    2.6311    0.7120    0.0510 H   0  0  0  0  0  0  0  0  0  0  0  0
    2.7077   -0.9735   -0.4384 H   0  0  0  0  0  0  0  0  0  0  0  0
    2.7156   -0.0865    3.6484 H   0  0  0  0  0  0  0  0  0  0  0  0
    1.2225    0.1322    2.7479 H   0  0  0  0  0  0  0  0  0  0  0  0
    3.7051    1.9550    2.5305 H   0  0  0  0  0  0  0  0  0  0  0  0
    2.1966    2.2928    3.3660 H   0  0  0  0  0  0  0  0  0  0  0  0
    2.1954    2.1783    1.6123 H   0  0  0  0  0  0  0  0  0  0  0  0
    1.2997   -2.0059    2.1586 H   0  0  0  0  0  0  0  0  0  0  0  0
    2.8089   -2.2131    3.0342 H   0  0  0  0  0  0  0  0  0  0  0  0
    2.3335   -3.0727    0.1060 H   0  0  0  0  0  0  0  0  0  0  0  0
    2.4007   -4.1024    1.5290 H   0  0  0  0  0  0  0  0  0  0  0  0
    3.8611   -3.2830    0.9978 H   0  0  0  0  0  0  0  0  0  0  0  0
    4.5355    0.4466    1.1498 H   0  0  0  0  0  0  0  0  0  0  0  0
    4.5961   -1.2502    0.6981 H   0  0  0  0  0  0  0  0  0  0  0  0
    4.9196   -1.8822    3.1352 H   0  0  0  0  0  0  0  0  0  0  0  0
    4.9013   -0.1678    3.5650 H   0  0  0  0  0  0  0  0  0  0  0  0
    6.9191    0.2135    2.1553 H   0  0  0  0  0  0  0  0  0  0  0  0
    6.8927   -1.4741    1.6376 H   0  0  0  0  0  0  0  0  0  0  0  0
    7.6466    0.8198    4.2284 H   0  0  0  0  0  0  0  0  0  0  0  0
    8.4011    0.2492    6.5031 H   0  0  0  0  0  0  0  0  0  0  0  0
    8.8909   -1.5455    8.2220 H   0  0  0  0  0  0  0  0  0  0  0  0
    9.0732   -3.9494    8.8229 H   0  0  0  0  0  0  0  0  0  0  0  0
    8.5336   -5.6882    7.1313 H   0  0  0  0  0  0  0  0  0  0  0  0
    7.8030   -5.0481    4.8655 H   0  0  0  0  0  0  0  0  0  0  0  0
    7.3121   -3.2231    3.1587 H   0  0  0  0  0  0  0  0  0  0  0  0
  1  2  1  0
  1 23  1  0
  1 22  1  0
  2  3  1  0
  3  6  1  0
  3  4  1  0
  4 27  1  0
  4 26  1  0
  5 28  1  0
  5  4  1  0
  5 29  1  0
  6 31  1  0
  6 32  1  0
  7 34  1  0
  7  6  1  0
  8  3  1  0
  8  9  1  0
  9 38  1  0
  9 39  1  0
 10  9  1  0
 10 11  1  0
 11 20  1  0
 11 12  1  0
 12 13  2  0
 13 14  1  0
 13 43  1  0
 14 15  2  0
 15 16  1  0
 15 44  1  0
 16 45  1  0
 17 46  1  0
 17 16  1  0
 18 17  2  0
 19 18  1  0
 19 14  1  0
 20 19  2  0
 21  1  1  0
 24  2  1  0
 25  2  1  0
 30  5  1  0
 33  7  1  0
 35  7  1  0
 36  8  1  0
 37  8  1  0
 40 10  1  0
 41 10  1  0
 42 12  1  0
 47 18  1  0
 48 20  1  0
M  CHG  1   3   1
M  END
