sf87x0_optsp_c1m2.out
     RDKit          3D

 39 40  0  0  0  0  0  0  0  0999 V2000
    1.0510   -0.1231   -0.0558 C   0  0  0  0  0  0  0  0  0  0  0  0
    2.5430   -0.0593    0.0250 N   0  0  0  0  0  0  0  0  0  0  0  0
    2.9865    1.3287   -0.3063 C   0  0  0  0  0  0  0  0  0  0  0  0
    2.9653   -0.3950    1.4188 C   0  0  0  0  0  0  0  0  0  0  0  0
    3.1133   -1.0604   -0.9694 C   0  0  0  0  0  0  0  0  0  0  0  0
    4.6237   -1.1322   -1.0476 C   0  0  0  0  0  0  0  0  0  0  0  0
    5.0673   -2.2262   -2.0435 C   0  0  0  0  0  0  0  0  0  0  0  0
    6.4970   -2.3707   -2.0634 N   0  0  0  0  0  0  0  0  0  0  0  0
    7.2522   -1.5312   -2.8653 C   0  0  0  0  0  0  0  0  0  0  0  0
    8.5717   -1.3428   -2.6618 C   0  0  0  0  0  0  0  0  0  0  0  0
    9.2588   -1.9896   -1.5660 C   0  0  0  0  0  0  0  0  0  0  0  0
   10.6184   -1.8219   -1.3149 C   0  0  0  0  0  0  0  0  0  0  0  0
   11.2379   -2.4856   -0.2579 C   0  0  0  0  0  0  0  0  0  0  0  0
   10.4850   -3.3372    0.5593 C   0  0  0  0  0  0  0  0  0  0  0  0
    9.1323   -3.5225    0.3355 C   0  0  0  0  0  0  0  0  0  0  0  0
    8.4804   -2.8517   -0.7274 C   0  0  0  0  0  0  0  0  0  0  0  0
    7.1078   -3.0016   -0.9774 C   0  0  0  0  0  0  0  0  0  0  0  0
    0.6243    0.5873    0.6545 H   0  0  0  0  0  0  0  0  0  0  0  0
    0.7237   -1.1349    0.1899 H   0  0  0  0  0  0  0  0  0  0  0  0
    0.7373    0.1323   -1.0694 H   0  0  0  0  0  0  0  0  0  0  0  0
    2.4942    2.0257    0.3742 H   0  0  0  0  0  0  0  0  0  0  0  0
    2.7051    1.5554   -1.3364 H   0  0  0  0  0  0  0  0  0  0  0  0
    4.0671    1.4032   -0.1883 H   0  0  0  0  0  0  0  0  0  0  0  0
    2.4809    0.2988    2.1082 H   0  0  0  0  0  0  0  0  0  0  0  0
    4.0473   -0.3007    1.5046 H   0  0  0  0  0  0  0  0  0  0  0  0
    2.6591   -1.4177    1.6463 H   0  0  0  0  0  0  0  0  0  0  0  0
    2.6826   -0.7843   -1.9380 H   0  0  0  0  0  0  0  0  0  0  0  0
    2.6918   -2.0291   -0.6798 H   0  0  0  0  0  0  0  0  0  0  0  0
    5.0728   -1.3852   -0.0800 H   0  0  0  0  0  0  0  0  0  0  0  0
    5.0569   -0.1820   -1.3790 H   0  0  0  0  0  0  0  0  0  0  0  0
    4.7218   -1.9883   -3.0560 H   0  0  0  0  0  0  0  0  0  0  0  0
    4.6223   -3.1900   -1.7645 H   0  0  0  0  0  0  0  0  0  0  0  0
    6.7141   -1.0695   -3.6880 H   0  0  0  0  0  0  0  0  0  0  0  0
    9.1282   -0.7143   -3.3497 H   0  0  0  0  0  0  0  0  0  0  0  0
   11.1979   -1.1688   -1.9632 H   0  0  0  0  0  0  0  0  0  0  0  0
   12.2991   -2.3499   -0.0751 H   0  0  0  0  0  0  0  0  0  0  0  0
   10.9682   -3.8644    1.3774 H   0  0  0  0  0  0  0  0  0  0  0  0
    8.5586   -4.1917    0.9723 H   0  0  0  0  0  0  0  0  0  0  0  0
    6.4924   -3.7117   -0.4353 H   0  0  0  0  0  0  0  0  0  0  0  0
  1  2  1  0
  1 19  1  0
  1 18  1  0
  2  4  1  0
  3 23  1  0
  3  2  1  0
  3 21  1  0
  4 25  1  0
  4 26  1  0
  4 24  1  0
  5 28  1  0
  5  2  1  0
  6  5  1  0
  6 29  1  0
  7 32  1  0
  7  6  1  0
  8  7  1  0
  8 17  1  0
  9 10  2  0
  9  8  1  0
 10 11  1  0
 11 12  2  0
 11 16  1  0
 12 13  1  0
 13 36  1  0
 13 14  1  0
 14 37  1  0
 15 14  2  0
 15 38  1  0
 16 15  1  0
 17 16  2  0
 17 39  1  0
 20  1  1  0
 22  3  1  0
 27  5  1  0
 30  6  1  0
 31  7  1  0
 33  9  1  0
 34 10  1  0
 35 12  1  0
M  CHG  1   2   1
M  END
