sf85x0_optsp_c1m2.out
     RDKit          3D

 48 49  0  0  0  0  0  0  0  0999 V2000
    8.9801    5.1259   -0.0630 C   0  0  0  0  0  0  0  0  0  0  0  0
    8.6450    4.0714    0.9371 N   0  0  0  0  0  0  0  0  0  0  0  0
    9.9149    3.5407    1.5227 C   0  0  0  0  0  0  0  0  0  0  0  0
    7.8313    4.6667    2.0419 C   0  0  0  0  0  0  0  0  0  0  0  0
    7.9057    2.9126    0.2854 C   0  0  0  0  0  0  0  0  0  0  0  0
    6.6673    3.2902   -0.5117 C   0  0  0  0  0  0  0  0  0  0  0  0
    5.9380    2.0577   -1.0694 C   0  0  0  0  0  0  0  0  0  0  0  0
    5.3281    1.1399    0.0031 C   0  0  0  0  0  0  0  0  0  0  0  0
    6.1233   -0.1394    0.2694 C   0  0  0  0  0  0  0  0  0  0  0  0
    5.7590   -0.8118    1.5948 C   0  0  0  0  0  0  0  0  0  0  0  0
    6.1182    0.0113    2.7398 N   0  0  0  0  0  0  0  0  0  0  0  0
    5.1877    0.7932    3.3730 C   0  0  0  0  0  0  0  0  0  0  0  0
    5.5338    1.7572    4.2603 C   0  0  0  0  0  0  0  0  0  0  0  0
    6.9217    2.0053    4.5799 C   0  0  0  0  0  0  0  0  0  0  0  0
    7.3431    2.9918    5.4699 C   0  0  0  0  0  0  0  0  0  0  0  0
    8.6976    3.1595    5.7757 C   0  0  0  0  0  0  0  0  0  0  0  0
    9.6445    2.3135    5.1917 C   0  0  0  0  0  0  0  0  0  0  0  0
    9.2603    1.3281    4.2922 C   0  0  0  0  0  0  0  0  0  0  0  0
    7.8931    1.1543    3.9497 C   0  0  0  0  0  0  0  0  0  0  0  0
    7.4649    0.1950    3.0199 C   0  0  0  0  0  0  0  0  0  0  0  0
    9.6057    5.8789    0.4195 H   0  0  0  0  0  0  0  0  0  0  0  0
    8.0642    5.5910   -0.4266 H   0  0  0  0  0  0  0  0  0  0  0  0
    9.5243    4.6701   -0.8927 H   0  0  0  0  0  0  0  0  0  0  0  0
   10.4515    4.3631    1.9996 H   0  0  0  0  0  0  0  0  0  0  0  0
   10.5228    3.1164    0.7214 H   0  0  0  0  0  0  0  0  0  0  0  0
    9.6736    2.7814    2.2712 H   0  0  0  0  0  0  0  0  0  0  0  0
    8.4058    5.4752    2.4976 H   0  0  0  0  0  0  0  0  0  0  0  0
    7.6222    3.8982    2.7902 H   0  0  0  0  0  0  0  0  0  0  0  0
    6.9024    5.0636    1.6330 H   0  0  0  0  0  0  0  0  0  0  0  0
    7.6732    2.2247    1.1060 H   0  0  0  0  0  0  0  0  0  0  0  0
    8.6401    2.4269   -0.3661 H   0  0  0  0  0  0  0  0  0  0  0  0
    6.9430    3.9347   -1.3541 H   0  0  0  0  0  0  0  0  0  0  0  0
    5.9602    3.8514    0.1118 H   0  0  0  0  0  0  0  0  0  0  0  0
    6.6171    1.4886   -1.7189 H   0  0  0  0  0  0  0  0  0  0  0  0
    5.1494    2.4365   -1.7276 H   0  0  0  0  0  0  0  0  0  0  0  0
    4.3094    0.8606   -0.2904 H   0  0  0  0  0  0  0  0  0  0  0  0
    5.2179    1.7090    0.9370 H   0  0  0  0  0  0  0  0  0  0  0  0
    7.2020    0.0698    0.2806 H   0  0  0  0  0  0  0  0  0  0  0  0
    5.9639   -0.8551   -0.5468 H   0  0  0  0  0  0  0  0  0  0  0  0
    6.2757   -1.7743    1.6863 H   0  0  0  0  0  0  0  0  0  0  0  0
    4.6846   -1.0151    1.6483 H   0  0  0  0  0  0  0  0  0  0  0  0
    4.1534    0.5794    3.1234 H   0  0  0  0  0  0  0  0  0  0  0  0
    4.7536    2.3229    4.7587 H   0  0  0  0  0  0  0  0  0  0  0  0
    6.5961    3.6188    5.9518 H   0  0  0  0  0  0  0  0  0  0  0  0
    9.0057    3.9191    6.4873 H   0  0  0  0  0  0  0  0  0  0  0  0
   10.6940    2.4137    5.4565 H   0  0  0  0  0  0  0  0  0  0  0  0
   10.0012    0.6517    3.8708 H   0  0  0  0  0  0  0  0  0  0  0  0
    8.1444   -0.5216    2.5725 H   0  0  0  0  0  0  0  0  0  0  0  0
  1 21  1  0
  1  2  1  0
  2  3  1  0
  2  4  1  0
  3 24  1  0
  3 26  1  0
  4 27  1  0
  4 28  1  0
  5  2  1  0
  5 30  1  0
  6 33  1  0
  6  5  1  0
  7  6  1  0
  7  8  1  0
  8  9  1  0
  8 37  1  0
  9 38  1  0
  9 10  1  0
 10 41  1  0
 10 40  1  0
 10 11  1  0
 11 20  1  0
 11 12  1  0
 12 13  2  0
 13 14  1  0
 13 43  1  0
 14 15  2  0
 15 16  1  0
 15 44  1  0
 16 45  1  0
 17 46  1  0
 17 16  1  0
 18 17  2  0
 19 18  1  0
 19 14  1  0
 20 19  2  0
 22  1  1  0
 23  1  1  0
 25  3  1  0
 29  4  1  0
 31  5  1  0
 32  6  1  0
 34  7  1  0
 35  7  1  0
 36  8  1  0
 39  9  1  0
 42 12  1  0
 47 18  1  0
 48 20  1  0
M  CHG  1   2   1
M  END
